/*--------------------------------*- C++ -*----------------------------------*\
| =========                 |                                                 |
| \\      /  F ield         | OpenFOAM: The Open Source CFD Toolbox           |
|  \\    /   O peration     | Version:  2312                                  |
|   \\  /    A nd           | Website:  www.openfoam.com                      |
|    \\/     M anipulation  |                                                 |
\*---------------------------------------------------------------------------*/
FoamFile
{
    version     2.0;
    format      ascii;
    arch        "LSB;label=32;scalar=64";
    class       polyBoundaryMesh;
    location    "constant/polyMesh";
    object      boundary;
}
// * * * * * * * * * * * * * * * * * * * * * * * * * * * * * * * * * * * * * //

7
(
    inletWater
    {
        type            patch;
        nFaces          60;
        startFace       21601;
    }
    outletWater
    {
        type            patch;
        nFaces          0;
        startFace       21661;
    }
    freeSurface
    {
        type            patch;
        nFaces          768;
        startFace       21661;
    }
    leftSide
    {
        type            wall;
        inGroups        1(wall);
        nFaces          1171;
        startFace       22429;
    }
    rightSide
    {
        type            wall;
        inGroups        1(wall);
        nFaces          1160;
        startFace       23600;
    }
    bedWall
    {
        type            wall;
        inGroups        1(wall);
        nFaces          820;
        startFace       24760;
    }
    procBoundary5to6
    {
        type            processor;
        inGroups        1(processor);
        nFaces          149;
        startFace       25580;
        matchTolerance  0.0001;
        transform       unknown;
        myProcNo        5;
        neighbProcNo    6;
    }
)

// ************************************************************************* //
