/*--------------------------------*- C++ -*----------------------------------*\
| =========                 |                                                 |
| \\      /  F ield         | OpenFOAM: The Open Source CFD Toolbox           |
|  \\    /   O peration     | Version:  2312                                  |
|   \\  /    A nd           | Website:  www.openfoam.com                      |
|    \\/     M anipulation  |                                                 |
\*---------------------------------------------------------------------------*/
FoamFile
{
    version     2.0;
    format      ascii;
    arch        "LSB;label=32;scalar=64";
    class       polyBoundaryMesh;
    location    "constant/polyMesh";
    object      boundary;
}
// * * * * * * * * * * * * * * * * * * * * * * * * * * * * * * * * * * * * * //

8
(
    inletWater
    {
        type            patch;
        nFaces          0;
        startFace       22255;
    }
    outletWater
    {
        type            patch;
        nFaces          0;
        startFace       22255;
    }
    freeSurface
    {
        type            patch;
        nFaces          452;
        startFace       22255;
    }
    leftSide
    {
        type            wall;
        inGroups        1(wall);
        nFaces          776;
        startFace       22707;
    }
    rightSide
    {
        type            wall;
        inGroups        1(wall);
        nFaces          787;
        startFace       23483;
    }
    bedWall
    {
        type            wall;
        inGroups        1(wall);
        nFaces          623;
        startFace       24270;
    }
    procBoundary9to7
    {
        type            processor;
        inGroups        1(processor);
        nFaces          328;
        startFace       24893;
        matchTolerance  0.0001;
        transform       unknown;
        myProcNo        9;
        neighbProcNo    7;
    }
    procBoundary9to8
    {
        type            processor;
        inGroups        1(processor);
        nFaces          395;
        startFace       25221;
        matchTolerance  0.0001;
        transform       unknown;
        myProcNo        9;
        neighbProcNo    8;
    }
)

// ************************************************************************* //
