/*--------------------------------*- C++ -*----------------------------------*\
| =========                 |                                                 |
| \\      /  F ield         | OpenFOAM: The Open Source CFD Toolbox           |
|  \\    /   O peration     | Version:  2312                                  |
|   \\  /    A nd           | Website:  www.openfoam.com                      |
|    \\/     M anipulation  |                                                 |
\*---------------------------------------------------------------------------*/
FoamFile
{
    version     2.0;
    format      ascii;
    arch        "LSB;label=32;scalar=64";
    class       polyBoundaryMesh;
    location    "constant/polyMesh";
    object      boundary;
}
// * * * * * * * * * * * * * * * * * * * * * * * * * * * * * * * * * * * * * //

8
(
    inletWater
    {
        type            patch;
        nFaces          0;
        startFace       22506;
    }
    outletWater
    {
        type            patch;
        nFaces          0;
        startFace       22506;
    }
    freeSurface
    {
        type            patch;
        nFaces          606;
        startFace       22506;
    }
    leftSide
    {
        type            wall;
        inGroups        1(wall);
        nFaces          781;
        startFace       23112;
    }
    rightSide
    {
        type            wall;
        inGroups        1(wall);
        nFaces          844;
        startFace       23893;
    }
    bedWall
    {
        type            wall;
        inGroups        1(wall);
        nFaces          495;
        startFace       24737;
    }
    procBoundary8to6
    {
        type            processor;
        inGroups        1(processor);
        nFaces          312;
        startFace       25232;
        matchTolerance  0.0001;
        transform       unknown;
        myProcNo        8;
        neighbProcNo    6;
    }
    procBoundary8to9
    {
        type            processor;
        inGroups        1(processor);
        nFaces          395;
        startFace       25544;
        matchTolerance  0.0001;
        transform       unknown;
        myProcNo        8;
        neighbProcNo    9;
    }
)

// ************************************************************************* //
