/*--------------------------------*- C++ -*----------------------------------*\
| =========                 |                                                 |
| \\      /  F ield         | OpenFOAM: The Open Source CFD Toolbox           |
|  \\    /   O peration     | Version:  2312                                  |
|   \\  /    A nd           | Website:  www.openfoam.com                      |
|    \\/     M anipulation  |                                                 |
\*---------------------------------------------------------------------------*/
FoamFile
{
    version     2.0;
    format      ascii;
    arch        "LSB;label=32;scalar=64";
    class       polyBoundaryMesh;
    location    "constant/polyMesh";
    object      boundary;
}
// * * * * * * * * * * * * * * * * * * * * * * * * * * * * * * * * * * * * * //

8
(
    inletWater
    {
        type            patch;
        nFaces          0;
        startFace       67217;
    }
    outletWater
    {
        type            patch;
        nFaces          0;
        startFace       67217;
    }
    freeSurface
    {
        type            patch;
        nFaces          680;
        startFace       67217;
    }
    leftSide
    {
        type            wall;
        inGroups        1(wall);
        nFaces          1163;
        startFace       67897;
    }
    rightSide
    {
        type            wall;
        inGroups        1(wall);
        nFaces          1163;
        startFace       69060;
    }
    bedWall
    {
        type            wall;
        inGroups        1(wall);
        nFaces          760;
        startFace       70223;
    }
    procBoundary1to0
    {
        type            processor;
        inGroups        1(processor);
        nFaces          640;
        startFace       70983;
        matchTolerance  0.0001;
        transform       unknown;
        myProcNo        1;
        neighbProcNo    0;
    }
    procBoundary1to4
    {
        type            processor;
        inGroups        1(processor);
        nFaces          720;
        startFace       71623;
        matchTolerance  0.0001;
        transform       unknown;
        myProcNo        1;
        neighbProcNo    4;
    }
)

// ************************************************************************* //
