/*--------------------------------*- C++ -*----------------------------------*\
| =========                 |                                                 |
| \\      /  F ield         | OpenFOAM: The Open Source CFD Toolbox           |
|  \\    /   O peration     | Version:  2312                                  |
|   \\  /    A nd           | Website:  www.openfoam.com                      |
|    \\/     M anipulation  |                                                 |
\*---------------------------------------------------------------------------*/
FoamFile
{
    version     2.0;
    format      ascii;
    arch        "LSB;label=32;scalar=64";
    class       polyBoundaryMesh;
    location    "constant/polyMesh";
    object      boundary;
}
// * * * * * * * * * * * * * * * * * * * * * * * * * * * * * * * * * * * * * //

8
(
    inletWater
    {
        type            patch;
        nFaces          0;
        startFace       22723;
    }
    outletWater
    {
        type            patch;
        nFaces          0;
        startFace       22723;
    }
    freeSurface
    {
        type            patch;
        nFaces          566;
        startFace       22723;
    }
    leftSide
    {
        type            wall;
        inGroups        1(wall);
        nFaces          742;
        startFace       23289;
    }
    rightSide
    {
        type            wall;
        inGroups        1(wall);
        nFaces          836;
        startFace       24031;
    }
    bedWall
    {
        type            wall;
        inGroups        1(wall);
        nFaces          548;
        startFace       24867;
    }
    procBoundary7to0
    {
        type            processor;
        inGroups        1(processor);
        nFaces          326;
        startFace       25415;
        matchTolerance  0.0001;
        transform       unknown;
        myProcNo        7;
        neighbProcNo    0;
    }
    procBoundary7to9
    {
        type            processor;
        inGroups        1(processor);
        nFaces          328;
        startFace       25741;
        matchTolerance  0.0001;
        transform       unknown;
        myProcNo        7;
        neighbProcNo    9;
    }
)

// ************************************************************************* //
