/*--------------------------------*- C++ -*----------------------------------*\
| =========                 |                                                 |
| \\      /  F ield         | OpenFOAM: The Open Source CFD Toolbox           |
|  \\    /   O peration     | Version:  2312                                  |
|   \\  /    A nd           | Website:  www.openfoam.com                      |
|    \\/     M anipulation  |                                                 |
\*---------------------------------------------------------------------------*/
FoamFile
{
    version     2.0;
    format      ascii;
    arch        "LSB;label=32;scalar=64";
    class       polyBoundaryMesh;
    location    "constant/polyMesh";
    object      boundary;
}
// * * * * * * * * * * * * * * * * * * * * * * * * * * * * * * * * * * * * * //

7
(
    inletWater
    {
        type            patch;
        nFaces          0;
        startFace       22657;
    }
    outletWater
    {
        type            patch;
        nFaces          468;
        startFace       22657;
    }
    freeSurface
    {
        type            patch;
        nFaces          504;
        startFace       23125;
    }
    leftSide
    {
        type            wall;
        inGroups        1(wall);
        nFaces          770;
        startFace       23629;
    }
    rightSide
    {
        type            wall;
        inGroups        1(wall);
        nFaces          740;
        startFace       24399;
    }
    bedWall
    {
        type            wall;
        inGroups        1(wall);
        nFaces          514;
        startFace       25139;
    }
    procBoundary2to3
    {
        type            processor;
        inGroups        1(processor);
        nFaces          329;
        startFace       25653;
        matchTolerance  0.0001;
        transform       unknown;
        myProcNo        2;
        neighbProcNo    3;
    }
)

// ************************************************************************* //
