/*--------------------------------*- C++ -*----------------------------------*\
| =========                 |                                                 |
| \\      /  F ield         | OpenFOAM: The Open Source CFD Toolbox           |
|  \\    /   O peration     | Version:  2312                                  |
|   \\  /    A nd           | Website:  www.openfoam.com                      |
|    \\/     M anipulation  |                                                 |
\*---------------------------------------------------------------------------*/
FoamFile
{
    version     2.0;
    format      ascii;
    arch        "LSB;label=32;scalar=64";
    class       polyBoundaryMesh;
    location    "constant/polyMesh";
    object      boundary;
}
// * * * * * * * * * * * * * * * * * * * * * * * * * * * * * * * * * * * * * //

8
(
    inletWater
    {
        type            patch;
        nFaces          0;
        startFace       65908;
    }
    outletWater
    {
        type            patch;
        nFaces          0;
        startFace       65908;
    }
    freeSurface
    {
        type            patch;
        nFaces          792;
        startFace       65908;
    }
    leftSide
    {
        type            wall;
        inGroups        1(wall);
        nFaces          1241;
        startFace       66700;
    }
    rightSide
    {
        type            wall;
        inGroups        1(wall);
        nFaces          1241;
        startFace       67941;
    }
    bedWall
    {
        type            wall;
        inGroups        1(wall);
        nFaces          958;
        startFace       69182;
    }
    procBoundary9to7
    {
        type            processor;
        inGroups        1(processor);
        nFaces          400;
        startFace       70140;
        matchTolerance  0.0001;
        transform       unknown;
        myProcNo        9;
        neighbProcNo    7;
    }
    procBoundary9to8
    {
        type            processor;
        inGroups        1(processor);
        nFaces          640;
        startFace       70540;
        matchTolerance  0.0001;
        transform       unknown;
        myProcNo        9;
        neighbProcNo    8;
    }
)

// ************************************************************************* //
