/*--------------------------------*- C++ -*----------------------------------*\
| =========                 |                                                 |
| \\      /  F ield         | OpenFOAM: The Open Source CFD Toolbox           |
|  \\    /   O peration     | Version:  2312                                  |
|   \\  /    A nd           | Website:  www.openfoam.com                      |
|    \\/     M anipulation  |                                                 |
\*---------------------------------------------------------------------------*/
FoamFile
{
    version     2.0;
    format      ascii;
    arch        "LSB;label=32;scalar=64";
    class       polyBoundaryMesh;
    location    "constant/polyMesh";
    object      boundary;
}
// * * * * * * * * * * * * * * * * * * * * * * * * * * * * * * * * * * * * * //

8
(
    inletWater
    {
        type            patch;
        nFaces          0;
        startFace       66770;
    }
    outletWater
    {
        type            patch;
        nFaces          0;
        startFace       66770;
    }
    freeSurface
    {
        type            patch;
        nFaces          747;
        startFace       66770;
    }
    leftSide
    {
        type            wall;
        inGroups        1(wall);
        nFaces          1166;
        startFace       67517;
    }
    rightSide
    {
        type            wall;
        inGroups        1(wall);
        nFaces          1150;
        startFace       68683;
    }
    bedWall
    {
        type            wall;
        inGroups        1(wall);
        nFaces          720;
        startFace       69833;
    }
    procBoundary4to3
    {
        type            processor;
        inGroups        1(processor);
        nFaces          669;
        startFace       70553;
        matchTolerance  0.0001;
        transform       unknown;
        myProcNo        4;
        neighbProcNo    3;
    }
    procBoundary4to6
    {
        type            processor;
        inGroups        1(processor);
        nFaces          680;
        startFace       71222;
        matchTolerance  0.0001;
        transform       unknown;
        myProcNo        4;
        neighbProcNo    6;
    }
)

// ************************************************************************* //
