/*--------------------------------*- C++ -*----------------------------------*\
| =========                 |                                                 |
| \\      /  F ield         | OpenFOAM: The Open Source CFD Toolbox           |
|  \\    /   O peration     | Version:  2312                                  |
|   \\  /    A nd           | Website:  www.openfoam.com                      |
|    \\/     M anipulation  |                                                 |
\*---------------------------------------------------------------------------*/
FoamFile
{
    version     2.0;
    format      ascii;
    arch        "LSB;label=32;scalar=64";
    class       polyBoundaryMesh;
    location    "constant/polyMesh";
    object      boundary;
}
// * * * * * * * * * * * * * * * * * * * * * * * * * * * * * * * * * * * * * //

8
(
    inletWater
    {
        type            patch;
        nFaces          0;
        startFace       66608;
    }
    outletWater
    {
        type            patch;
        nFaces          0;
        startFace       66608;
    }
    freeSurface
    {
        type            patch;
        nFaces          720;
        startFace       66608;
    }
    leftSide
    {
        type            wall;
        inGroups        1(wall);
        nFaces          1152;
        startFace       67328;
    }
    rightSide
    {
        type            wall;
        inGroups        1(wall);
        nFaces          1152;
        startFace       68480;
    }
    bedWall
    {
        type            wall;
        inGroups        1(wall);
        nFaces          720;
        startFace       69632;
    }
    procBoundary7to5
    {
        type            processor;
        inGroups        1(processor);
        nFaces          640;
        startFace       70352;
        matchTolerance  0.0001;
        transform       unknown;
        myProcNo        7;
        neighbProcNo    5;
    }
    procBoundary7to8
    {
        type            processor;
        inGroups        1(processor);
        nFaces          640;
        startFace       70992;
        matchTolerance  0.0001;
        transform       unknown;
        myProcNo        7;
        neighbProcNo    8;
    }
)

// ************************************************************************* //
