/*--------------------------------*- C++ -*----------------------------------*\
| =========                 |                                                 |
| \\      /  F ield         | OpenFOAM: The Open Source CFD Toolbox           |
|  \\    /   O peration     | Version:  2312                                  |
|   \\  /    A nd           | Website:  www.openfoam.com                      |
|    \\/     M anipulation  |                                                 |
\*---------------------------------------------------------------------------*/
FoamFile
{
    version     2.0;
    format      ascii;
    arch        "LSB;label=32;scalar=64";
    class       polyBoundaryMesh;
    location    "constant/polyMesh";
    object      boundary;
}
// * * * * * * * * * * * * * * * * * * * * * * * * * * * * * * * * * * * * * //

8
(
    inletWater
    {
        type            patch;
        nFaces          0;
        startFace       22613;
    }
    outletWater
    {
        type            patch;
        nFaces          0;
        startFace       22613;
    }
    freeSurface
    {
        type            patch;
        nFaces          499;
        startFace       22613;
    }
    leftSide
    {
        type            wall;
        inGroups        1(wall);
        nFaces          748;
        startFace       23112;
    }
    rightSide
    {
        type            wall;
        inGroups        1(wall);
        nFaces          845;
        startFace       23860;
    }
    bedWall
    {
        type            wall;
        inGroups        1(wall);
        nFaces          576;
        startFace       24705;
    }
    procBoundary1to0
    {
        type            processor;
        inGroups        1(processor);
        nFaces          344;
        startFace       25281;
        matchTolerance  0.0001;
        transform       unknown;
        myProcNo        1;
        neighbProcNo    0;
    }
    procBoundary1to4
    {
        type            processor;
        inGroups        1(processor);
        nFaces          353;
        startFace       25625;
        matchTolerance  0.0001;
        transform       unknown;
        myProcNo        1;
        neighbProcNo    4;
    }
)

// ************************************************************************* //
