/*--------------------------------*- C++ -*----------------------------------*\
| =========                 |                                                 |
| \\      /  F ield         | OpenFOAM: The Open Source CFD Toolbox           |
|  \\    /   O peration     | Version:  2312                                  |
|   \\  /    A nd           | Website:  www.openfoam.com                      |
|    \\/     M anipulation  |                                                 |
\*---------------------------------------------------------------------------*/
FoamFile
{
    version     2.0;
    format      ascii;
    arch        "LSB;label=32;scalar=64";
    class       polyBoundaryMesh;
    location    "constant/polyMesh";
    object      boundary;
}
// * * * * * * * * * * * * * * * * * * * * * * * * * * * * * * * * * * * * * //

8
(
    inletWater
    {
        type            patch;
        nFaces          0;
        startFace       66135;
    }
    outletWater
    {
        type            patch;
        nFaces          0;
        startFace       66135;
    }
    freeSurface
    {
        type            patch;
        nFaces          660;
        startFace       66135;
    }
    leftSide
    {
        type            wall;
        inGroups        1(wall);
        nFaces          1145;
        startFace       66795;
    }
    rightSide
    {
        type            wall;
        inGroups        1(wall);
        nFaces          1145;
        startFace       67940;
    }
    bedWall
    {
        type            wall;
        inGroups        1(wall);
        nFaces          780;
        startFace       69085;
    }
    procBoundary1to0
    {
        type            processor;
        inGroups        1(processor);
        nFaces          740;
        startFace       69865;
        matchTolerance  0.0001;
        transform       unknown;
        myProcNo        1;
        neighbProcNo    0;
    }
    procBoundary1to2
    {
        type            processor;
        inGroups        1(processor);
        nFaces          660;
        startFace       70605;
        matchTolerance  0.0001;
        transform       unknown;
        myProcNo        1;
        neighbProcNo    2;
    }
)

// ************************************************************************* //
