/*--------------------------------*- C++ -*----------------------------------*\
| =========                 |                                                 |
| \\      /  F ield         | OpenFOAM: The Open Source CFD Toolbox           |
|  \\    /   O peration     | Version:  2312                                  |
|   \\  /    A nd           | Website:  www.openfoam.com                      |
|    \\/     M anipulation  |                                                 |
\*---------------------------------------------------------------------------*/
FoamFile
{
    version     2.0;
    format      ascii;
    arch        "LSB;label=32;scalar=64";
    class       polyBoundaryMesh;
    location    "constant/polyMesh";
    object      boundary;
}
// * * * * * * * * * * * * * * * * * * * * * * * * * * * * * * * * * * * * * //

8
(
    inletWater
    {
        type            patch;
        nFaces          0;
        startFace       65472;
    }
    outletWater
    {
        type            patch;
        nFaces          0;
        startFace       65472;
    }
    freeSurface
    {
        type            patch;
        nFaces          753;
        startFace       65472;
    }
    leftSide
    {
        type            wall;
        inGroups        1(wall);
        nFaces          1123;
        startFace       66225;
    }
    rightSide
    {
        type            wall;
        inGroups        1(wall);
        nFaces          1139;
        startFace       67348;
    }
    bedWall
    {
        type            wall;
        inGroups        1(wall);
        nFaces          680;
        startFace       68487;
    }
    procBoundary3to2
    {
        type            processor;
        inGroups        1(processor);
        nFaces          700;
        startFace       69167;
        matchTolerance  0.0001;
        transform       unknown;
        myProcNo        3;
        neighbProcNo    2;
    }
    procBoundary3to4
    {
        type            processor;
        inGroups        1(processor);
        nFaces          669;
        startFace       69867;
        matchTolerance  0.0001;
        transform       unknown;
        myProcNo        3;
        neighbProcNo    4;
    }
)

// ************************************************************************* //
