/*--------------------------------*- C++ -*----------------------------------*\
| =========                 |                                                 |
| \\      /  F ield         | OpenFOAM: The Open Source CFD Toolbox           |
|  \\    /   O peration     | Version:  2312                                  |
|   \\  /    A nd           | Website:  www.openfoam.com                      |
|    \\/     M anipulation  |                                                 |
\*---------------------------------------------------------------------------*/
FoamFile
{
    version     2.0;
    format      ascii;
    arch        "LSB;label=32;scalar=64";
    class       polyBoundaryMesh;
    location    "constant/polyMesh";
    object      boundary;
}
// * * * * * * * * * * * * * * * * * * * * * * * * * * * * * * * * * * * * * //

8
(
    inletWater
    {
        type            patch;
        nFaces          0;
        startFace       67709;
    }
    outletWater
    {
        type            patch;
        nFaces          0;
        startFace       67709;
    }
    freeSurface
    {
        type            patch;
        nFaces          740;
        startFace       67709;
    }
    leftSide
    {
        type            wall;
        inGroups        1(wall);
        nFaces          1171;
        startFace       68449;
    }
    rightSide
    {
        type            wall;
        inGroups        1(wall);
        nFaces          1171;
        startFace       69620;
    }
    bedWall
    {
        type            wall;
        inGroups        1(wall);
        nFaces          720;
        startFace       70791;
    }
    procBoundary8to7
    {
        type            processor;
        inGroups        1(processor);
        nFaces          640;
        startFace       71511;
        matchTolerance  0.0001;
        transform       unknown;
        myProcNo        8;
        neighbProcNo    7;
    }
    procBoundary8to9
    {
        type            processor;
        inGroups        1(processor);
        nFaces          660;
        startFace       72151;
        matchTolerance  0.0001;
        transform       unknown;
        myProcNo        8;
        neighbProcNo    9;
    }
)

// ************************************************************************* //
