/*--------------------------------*- C++ -*----------------------------------*\
| =========                 |                                                 |
| \\      /  F ield         | OpenFOAM: The Open Source CFD Toolbox           |
|  \\    /   O peration     | Version:  2312                                  |
|   \\  /    A nd           | Website:  www.openfoam.com                      |
|    \\/     M anipulation  |                                                 |
\*---------------------------------------------------------------------------*/
FoamFile
{
    version     2.0;
    format      ascii;
    arch        "LSB;label=32;scalar=64";
    class       polyBoundaryMesh;
    location    "constant/polyMesh";
    object      boundary;
}
// * * * * * * * * * * * * * * * * * * * * * * * * * * * * * * * * * * * * * //

8
(
    inletWater
    {
        type            patch;
        nFaces          0;
        startFace       22354;
    }
    outletWater
    {
        type            patch;
        nFaces          0;
        startFace       22354;
    }
    freeSurface
    {
        type            patch;
        nFaces          513;
        startFace       22354;
    }
    leftSide
    {
        type            wall;
        inGroups        1(wall);
        nFaces          806;
        startFace       22867;
    }
    rightSide
    {
        type            wall;
        inGroups        1(wall);
        nFaces          753;
        startFace       23673;
    }
    bedWall
    {
        type            wall;
        inGroups        1(wall);
        nFaces          576;
        startFace       24426;
    }
    procBoundary4to1
    {
        type            processor;
        inGroups        1(processor);
        nFaces          353;
        startFace       25002;
        matchTolerance  0.0001;
        transform       unknown;
        myProcNo        4;
        neighbProcNo    1;
    }
    procBoundary4to3
    {
        type            processor;
        inGroups        1(processor);
        nFaces          327;
        startFace       25355;
        matchTolerance  0.0001;
        transform       unknown;
        myProcNo        4;
        neighbProcNo    3;
    }
)

// ************************************************************************* //
