/*--------------------------------*- C++ -*----------------------------------*\
| =========                 |                                                 |
| \\      /  F ield         | OpenFOAM: The Open Source CFD Toolbox           |
|  \\    /   O peration     | Version:  2312                                  |
|   \\  /    A nd           | Website:  www.openfoam.com                      |
|    \\/     M anipulation  |                                                 |
\*---------------------------------------------------------------------------*/
FoamFile
{
    version     2.0;
    format      ascii;
    arch        "LSB;label=32;scalar=64";
    class       polyBoundaryMesh;
    location    "constant/polyMesh";
    object      boundary;
}
// * * * * * * * * * * * * * * * * * * * * * * * * * * * * * * * * * * * * * //

8
(
    inletWater
    {
        type            patch;
        nFaces          0;
        startFace       66411;
    }
    outletWater
    {
        type            patch;
        nFaces          0;
        startFace       66411;
    }
    freeSurface
    {
        type            patch;
        nFaces          740;
        startFace       66411;
    }
    leftSide
    {
        type            wall;
        inGroups        1(wall);
        nFaces          1149;
        startFace       67151;
    }
    rightSide
    {
        type            wall;
        inGroups        1(wall);
        nFaces          1149;
        startFace       68300;
    }
    bedWall
    {
        type            wall;
        inGroups        1(wall);
        nFaces          700;
        startFace       69449;
    }
    procBoundary5to6
    {
        type            processor;
        inGroups        1(processor);
        nFaces          680;
        startFace       70149;
        matchTolerance  0.0001;
        transform       unknown;
        myProcNo        5;
        neighbProcNo    6;
    }
    procBoundary5to7
    {
        type            processor;
        inGroups        1(processor);
        nFaces          640;
        startFace       70829;
        matchTolerance  0.0001;
        transform       unknown;
        myProcNo        5;
        neighbProcNo    7;
    }
)

// ************************************************************************* //
