/*--------------------------------*- C++ -*----------------------------------*\
| =========                 |                                                 |
| \\      /  F ield         | OpenFOAM: The Open Source CFD Toolbox           |
|  \\    /   O peration     | Version:  2312                                  |
|   \\  /    A nd           | Website:  www.openfoam.com                      |
|    \\/     M anipulation  |                                                 |
\*---------------------------------------------------------------------------*/
FoamFile
{
    version     2.0;
    format      ascii;
    arch        "LSB;label=32;scalar=64";
    class       polyBoundaryMesh;
    location    "constant/polyMesh";
    object      boundary;
}
// * * * * * * * * * * * * * * * * * * * * * * * * * * * * * * * * * * * * * //

8
(
    inletWater
    {
        type            patch;
        nFaces          0;
        startFace       22472;
    }
    outletWater
    {
        type            patch;
        nFaces          0;
        startFace       22472;
    }
    freeSurface
    {
        type            patch;
        nFaces          612;
        startFace       22472;
    }
    leftSide
    {
        type            wall;
        inGroups        1(wall);
        nFaces          802;
        startFace       23084;
    }
    rightSide
    {
        type            wall;
        inGroups        1(wall);
        nFaces          768;
        startFace       23886;
    }
    bedWall
    {
        type            wall;
        inGroups        1(wall);
        nFaces          486;
        startFace       24654;
    }
    procBoundary0to1
    {
        type            processor;
        inGroups        1(processor);
        nFaces          344;
        startFace       25140;
        matchTolerance  0.0001;
        transform       unknown;
        myProcNo        0;
        neighbProcNo    1;
    }
    procBoundary0to7
    {
        type            processor;
        inGroups        1(processor);
        nFaces          326;
        startFace       25484;
        matchTolerance  0.0001;
        transform       unknown;
        myProcNo        0;
        neighbProcNo    7;
    }
)

// ************************************************************************* //
