/*--------------------------------*- C++ -*----------------------------------*\
| =========                 |                                                 |
| \\      /  F ield         | OpenFOAM: The Open Source CFD Toolbox           |
|  \\    /   O peration     | Version:  2312                                  |
|   \\  /    A nd           | Website:  www.openfoam.com                      |
|    \\/     M anipulation  |                                                 |
\*---------------------------------------------------------------------------*/
FoamFile
{
    version     2.0;
    format      ascii;
    arch        "LSB;label=32;scalar=64";
    class       polyBoundaryMesh;
    location    "constant/polyMesh";
    object      boundary;
}
// * * * * * * * * * * * * * * * * * * * * * * * * * * * * * * * * * * * * * //

8
(
    inletWater
    {
        type            patch;
        nFaces          0;
        startFace       66410;
    }
    outletWater
    {
        type            patch;
        nFaces          0;
        startFace       66410;
    }
    freeSurface
    {
        type            patch;
        nFaces          790;
        startFace       66410;
    }
    leftSide
    {
        type            wall;
        inGroups        1(wall);
        nFaces          1240;
        startFace       67200;
    }
    rightSide
    {
        type            wall;
        inGroups        1(wall);
        nFaces          1248;
        startFace       68440;
    }
    bedWall
    {
        type            wall;
        inGroups        1(wall);
        nFaces          988;
        startFace       69688;
    }
    procBoundary3to2
    {
        type            processor;
        inGroups        1(processor);
        nFaces          406;
        startFace       70676;
        matchTolerance  0.0001;
        transform       unknown;
        myProcNo        3;
        neighbProcNo    2;
    }
    procBoundary3to4
    {
        type            processor;
        inGroups        1(processor);
        nFaces          700;
        startFace       71082;
        matchTolerance  0.0001;
        transform       unknown;
        myProcNo        3;
        neighbProcNo    4;
    }
)

// ************************************************************************* //
