/*--------------------------------*- C++ -*----------------------------------*\
| =========                 |                                                 |
| \\      /  F ield         | OpenFOAM: The Open Source CFD Toolbox           |
|  \\    /   O peration     | Version:  2312                                  |
|   \\  /    A nd           | Website:  www.openfoam.com                      |
|    \\/     M anipulation  |                                                 |
\*---------------------------------------------------------------------------*/
FoamFile
{
    version     2.0;
    format      ascii;
    arch        "LSB;label=32;scalar=64";
    class       polyBoundaryMesh;
    location    "constant/polyMesh";
    object      boundary;
}
// * * * * * * * * * * * * * * * * * * * * * * * * * * * * * * * * * * * * * //

7
(
    inletWater
    {
        type            patch;
        nFaces          0;
        startFace       66765;
    }
    outletWater
    {
        type            patch;
        nFaces          640;
        startFace       66765;
    }
    freeSurface
    {
        type            patch;
        nFaces          700;
        startFace       67405;
    }
    leftSide
    {
        type            wall;
        inGroups        1(wall);
        nFaces          1155;
        startFace       68105;
    }
    rightSide
    {
        type            wall;
        inGroups        1(wall);
        nFaces          1155;
        startFace       69260;
    }
    bedWall
    {
        type            wall;
        inGroups        1(wall);
        nFaces          740;
        startFace       70415;
    }
    procBoundary6to5
    {
        type            processor;
        inGroups        1(processor);
        nFaces          680;
        startFace       71155;
        matchTolerance  0.0001;
        transform       unknown;
        myProcNo        6;
        neighbProcNo    5;
    }
)

// ************************************************************************* //
