/*--------------------------------*- C++ -*----------------------------------*\
| =========                 |                                                 |
| \\      /  F ield         | OpenFOAM: The Open Source CFD Toolbox           |
|  \\    /   O peration     | Version:  2312                                  |
|   \\  /    A nd           | Website:  www.openfoam.com                      |
|    \\/     M anipulation  |                                                 |
\*---------------------------------------------------------------------------*/
FoamFile
{
    version     2.0;
    format      ascii;
    arch        "LSB;label=32;scalar=64";
    class       polyBoundaryMesh;
    location    "constant/polyMesh";
    object      boundary;
}
// * * * * * * * * * * * * * * * * * * * * * * * * * * * * * * * * * * * * * //

7
(
    inletWater
    {
        type            patch;
        nFaces          0;
        startFace       65919;
    }
    outletWater
    {
        type            patch;
        nFaces          640;
        startFace       65919;
    }
    freeSurface
    {
        type            patch;
        nFaces          760;
        startFace       66559;
    }
    leftSide
    {
        type            wall;
        inGroups        1(wall);
        nFaces          1141;
        startFace       67319;
    }
    rightSide
    {
        type            wall;
        inGroups        1(wall);
        nFaces          1141;
        startFace       68460;
    }
    bedWall
    {
        type            wall;
        inGroups        1(wall);
        nFaces          660;
        startFace       69601;
    }
    procBoundary0to1
    {
        type            processor;
        inGroups        1(processor);
        nFaces          740;
        startFace       70261;
        matchTolerance  0.0001;
        transform       unknown;
        myProcNo        0;
        neighbProcNo    1;
    }
)

// ************************************************************************* //
