/*--------------------------------*- C++ -*----------------------------------*\
| =========                 |                                                 |
| \\      /  F ield         | OpenFOAM: The Open Source CFD Toolbox           |
|  \\    /   O peration     | Version:  2312                                  |
|   \\  /    A nd           | Website:  www.openfoam.com                      |
|    \\/     M anipulation  |                                                 |
\*---------------------------------------------------------------------------*/
FoamFile
{
    version     2.0;
    format      ascii;
    arch        "LSB;label=32;scalar=64";
    class       polyBoundaryMesh;
    location    "constant/polyMesh";
    object      boundary;
}
// * * * * * * * * * * * * * * * * * * * * * * * * * * * * * * * * * * * * * //

7
(
    inletWater
    {
        type            patch;
        nFaces          96;
        startFace       64666;
    }
    outletWater
    {
        type            patch;
        nFaces          0;
        startFace       64762;
    }
    freeSurface
    {
        type            patch;
        nFaces          1426;
        startFace       64762;
    }
    leftSide
    {
        type            wall;
        inGroups        1(wall);
        nFaces          2119;
        startFace       66188;
    }
    rightSide
    {
        type            wall;
        inGroups        1(wall);
        nFaces          2119;
        startFace       68307;
    }
    bedWall
    {
        type            wall;
        inGroups        1(wall);
        nFaces          1564;
        startFace       70426;
    }
    procBoundary7to9
    {
        type            processor;
        inGroups        1(processor);
        nFaces          400;
        startFace       71990;
        matchTolerance  0.0001;
        transform       unknown;
        myProcNo        7;
        neighbProcNo    9;
    }
)

// ************************************************************************* //
