/*--------------------------------*- C++ -*----------------------------------*\
| =========                 |                                                 |
| \\      /  F ield         | OpenFOAM: The Open Source CFD Toolbox           |
|  \\    /   O peration     | Version:  2312                                  |
|   \\  /    A nd           | Website:  www.openfoam.com                      |
|    \\/     M anipulation  |                                                 |
\*---------------------------------------------------------------------------*/
FoamFile
{
    version     2.0;
    format      ascii;
    arch        "LSB;label=32;scalar=64";
    class       polyBoundaryMesh;
    location    "constant/polyMesh";
    object      boundary;
}
// * * * * * * * * * * * * * * * * * * * * * * * * * * * * * * * * * * * * * //

8
(
    inletWater
    {
        type            patch;
        nFaces          0;
        startFace       67531;
    }
    outletWater
    {
        type            patch;
        nFaces          0;
        startFace       67531;
    }
    freeSurface
    {
        type            patch;
        nFaces          800;
        startFace       67531;
    }
    leftSide
    {
        type            wall;
        inGroups        1(wall);
        nFaces          1169;
        startFace       68331;
    }
    rightSide
    {
        type            wall;
        inGroups        1(wall);
        nFaces          1169;
        startFace       69500;
    }
    bedWall
    {
        type            wall;
        inGroups        1(wall);
        nFaces          660;
        startFace       70669;
    }
    procBoundary4to1
    {
        type            processor;
        inGroups        1(processor);
        nFaces          720;
        startFace       71329;
        matchTolerance  0.0001;
        transform       unknown;
        myProcNo        4;
        neighbProcNo    1;
    }
    procBoundary4to3
    {
        type            processor;
        inGroups        1(processor);
        nFaces          700;
        startFace       72049;
        matchTolerance  0.0001;
        transform       unknown;
        myProcNo        4;
        neighbProcNo    3;
    }
)

// ************************************************************************* //
